Circuit: *** SPICE deck for cell 4xInverter{sch} from library Demo

Warning: toxe, toxp and dtox all given and toxe != toxp + dtox; dtox ignored.
Direct Newton iteration for .op point succeeded.

tplh=3.52869e-012 FROM 1.05e-009 TO 1.05353e-009
tphl=5.82103e-012 FROM 5e-011 TO 5.5821e-011


Date: Thu Sep 12 17:47:55 2024
Total elapsed time: 0.246 seconds.

tnom = 27
temp = 27
method = modified trap
totiter = 2127
traniter = 2121
tranpoints = 1052
accept = 1052
rejected = 0
matrix size = 29
fillins = 0
solver = Normal
Matrix Compiler1:     156 opcodes  0.7/[0.4]/0.6
Matrix Compiler2: 3.37 KB object code size  0.4/0.6/[0.2]


