Circuit: *** SPICE deck for cell FiveStageRingOsc{sch} from library Demo

Warning: toxe, toxp and dtox all given and toxe != toxp + dtox; dtox ignored.
Warning: toxe, toxp and dtox all given and toxe != toxp + dtox; dtox ignored.
Warning: toxe, toxp and dtox all given and toxe != toxp + dtox; dtox ignored.
Warning: toxe, toxp and dtox all given and toxe != toxp + dtox; dtox ignored.
Warning: toxe, toxp and dtox all given and toxe != toxp + dtox; dtox ignored.
Warning: toxe, toxp and dtox all given and toxe != toxp + dtox; dtox ignored.
Warning: toxe, toxp and dtox all given and toxe != toxp + dtox; dtox ignored.
Direct Newton iteration for .op point succeeded.

t1: time=2.38232e-010 at 2.38232e-010
t2: time=3.07108e-010 at 3.07108e-010
f: 1/(t2-t1)=1.45189e+010


Date: Thu Sep 05 13:06:50 2024
Total elapsed time: 0.494 seconds.

tnom = 27
temp = 27
method = modified trap
totiter = 5188
traniter = 5166
tranpoints = 1042
accept = 1042
rejected = 0
matrix size = 65
fillins = 8
solver = Normal
Matrix Compiler1: 8.97 KB object code size  1.7/0.9/[0.8]
Matrix Compiler2: off  [0.8]/1.0/1.0


