Circuit: *** SPICE deck for cell Demo__AND2_2x{lay} from library Demo

Fatal Error: No analysis request found.
