LTspice 24.0.12 for Windows
Circuit: *** SPICE deck for cell Demo__inverter{lay} from library Demo
Start Time: Thu Sep  5 13:03:55 2024
solver = Normal
Maximum thread count: 8
tnom = 27
temp = 27
method = modified trap
Warning: toxe, toxp and dtox all given and toxe != toxp + dtox; dtox ignored.
Direct Newton iteration for .op point succeeded.

tplh=8.54346e-12 FROM 1.05e-09 TO 1.05854e-09
tphl=1.25666e-11 FROM 5e-11 TO 6.25666e-11

Total elapsed time: 0.535 seconds.

