Circuit: *** SPICE deck for cell Demo__FiveStageRingOsc{lay} from library Demo

Warning: toxe, toxp and dtox all given and toxe != toxp + dtox; dtox ignored.
Direct Newton iteration for .op point succeeded.

t1: time=3.07373e-010 at 3.07373e-010
t2: time=3.93273e-010 at 3.93273e-010
f: 1/(t2-t1)=1.16414e+010


Date: Thu Sep 05 17:20:52 2024
Total elapsed time: 9.366 seconds.

tnom = 27
temp = 27
method = modified trap
totiter = 200063
traniter = 200034
tranpoints = 100018
accept = 100018
rejected = 0
matrix size = 92
fillins = 88
solver = Normal
Matrix Compiler1: 12.3 KB object code size  2.8/1.5/[0.9]
Matrix Compiler2: off  [1.2]/1.4/3.6


