Circuit: *** SPICE deck for cell Demo__NAND2_2x{lay} from library Demo

Warning: toxe, toxp and dtox all given and toxe != toxp + dtox; dtox ignored.
Direct Newton iteration for .op point succeeded.

tphl=9.78604e-012 FROM 1.45e-009 TO 1.45979e-009
tplh=9.93916e-012 FROM 1.95e-009 TO 1.95994e-009


Date: Thu Sep 26 16:47:47 2024
Total elapsed time: 0.110 seconds.

tnom = 27
temp = 27
method = modified trap
totiter = 2186
traniter = 2179
tranpoints = 1069
accept = 1069
rejected = 0
matrix size = 35
fillins = 16
solver = Normal
Matrix Compiler1: 4.30 KB object code size  0.7/0.4/[0.3]
Matrix Compiler2: 3.75 KB object code size  0.3/0.4/[0.2]


