Circuit: *** SPICE deck for cell Demo__FA_2x{lay} from library Demo

Fatal Error: No analysis request found.
