Circuit: *** SPICE deck for cell Demo__Test__NAND2_2x{lay} from library Demo

Warning: toxe, toxp and dtox all given and toxe != toxp + dtox; dtox ignored.
Direct Newton iteration for .op point succeeded.

tphl=7.21692e-012 FROM 1.47805e-009 TO 1.48527e-009
tplh=6.49533e-012 FROM 1.97705e-009 TO 1.98355e-009


Date: Thu Sep 26 16:45:50 2024
Total elapsed time: 0.145 seconds.

tnom = 27
temp = 27
method = modified trap
totiter = 2247
traniter = 2222
tranpoints = 1069
accept = 1069
rejected = 0
matrix size = 115
fillins = 94
solver = Normal
Matrix Compiler1: 14.8 KB object code size  2.0/1.1/[0.6]
Matrix Compiler2: off  [0.8]/1.0/0.9


