Circuit: *** SPICE deck for cell FA_2x{sch} from library Demo

Warning: toxe, toxp and dtox all given and toxe != toxp + dtox; dtox ignored.
Direct Newton iteration for .op point succeeded.


Measurement "tcoff" FAIL'ed

Measurement "tcon" FAIL'ed

Measurement "taoff" FAIL'ed

Measurement "taon" FAIL'ed


Date: Thu Oct 24 17:37:15 2024
Total elapsed time: 0.435 seconds.

tnom = 27
temp = 27
method = modified trap
totiter = 2202
traniter = 2163
tranpoints = 1067
accept = 1067
rejected = 0
matrix size = 196
fillins = 0
solver = Normal
Thread vector: 162.9/73.2[4] 21.3/6.2[4] 9.9/4.8[4] 2.0/2.8[1]  2592/500
Matrix Compiler1: 25.6 KB object code size  9.6/4.1/[3.0]
Matrix Compiler2: off  [3.9]/9.2/5.0


