Circuit: *** SPICE deck for cell Demo__FA_3x_Carry{lay} from library Demo

Fatal Error: No analysis request found.
