Circuit: *** SPICE deck for cell FA_3x_Carry{sch} from library Demo

Warning: toxe, toxp and dtox all given and toxe != toxp + dtox; dtox ignored.
Direct Newton iteration for .op point succeeded.


Measurement "tcoff" FAIL'ed

Measurement "tcon" FAIL'ed

Measurement "taoff" FAIL'ed

Measurement "taon" FAIL'ed


Date: Thu Oct 24 17:44:40 2024
Total elapsed time: 0.377 seconds.

tnom = 27
temp = 27
method = modified trap
totiter = 2167
traniter = 2151
tranpoints = 1067
accept = 1067
rejected = 0
matrix size = 101
fillins = 0
solver = Normal
Thread vector: 74.5/57.1[2] 8.9/6.3[2] 4.4/2.9[2] 0.8/2.9[1]  2592/500
Matrix Compiler1: 11.9 KB object code size  2.5/3.8/[0.9]
Matrix Compiler2: 12.5 KB object code size  1.4/2.6/[1.3]


