Circuit: *** SPICE deck for cell Demo__FA_Carry_3x{lay} from library Demo

Fatal Error: No analysis request found.
