LTspice 24.0.12 for Windows
Circuit: *** SPICE deck for cell FiveStageRingOsc{sch} from library Demo
Start Time: Thu Sep  5 17:34:42 2024
solver = Normal
Maximum thread count: 8



Warning: toxe, toxp and dtox all given and toxe != toxp + dtox; dtox ignored.
Warning: toxe, toxp and dtox all given and toxe != toxp + dtox; dtox ignored.
Warning: toxe, toxp and dtox all given and toxe != toxp + dtox; dtox ignored.
Warning: toxe, toxp and dtox all given and toxe != toxp + dtox; dtox ignored.
Warning: toxe, toxp and dtox all given and toxe != toxp + dtox; dtox ignored.
Direct Newton iteration for .op point succeeded.
.step mc_run=1



.step mc_run=2



.step mc_run=3



.step mc_run=4



.step mc_run=5



.step mc_run=6



.step mc_run=7



.step mc_run=8



.step mc_run=9



.step mc_run=10



.step mc_run=11



.step mc_run=12



.step mc_run=13



.step mc_run=14



.step mc_run=15



.step mc_run=16



.step mc_run=17



.step mc_run=18



.step mc_run=19



.step mc_run=20



.step mc_run=21



.step mc_run=22



.step mc_run=23



.step mc_run=24



.step mc_run=25



.step mc_run=26



.step mc_run=27



.step mc_run=28



.step mc_run=29



.step mc_run=30



.step mc_run=31



.step mc_run=32



.step mc_run=33



.step mc_run=34



.step mc_run=35



.step mc_run=36



.step mc_run=37



.step mc_run=38



.step mc_run=39



.step mc_run=40



.step mc_run=41



.step mc_run=42



.step mc_run=43



.step mc_run=44



.step mc_run=45



.step mc_run=46



.step mc_run=47



.step mc_run=48



.step mc_run=49
tnom = 27
temp = 27
method = modified trap
.step mc_run=50


Measurement: t1
  step	time	at
     1	1.30859e-10	1.30859e-10
     2	1.31414e-10	1.31414e-10
     3	1.32014e-10	1.32014e-10
     4	1.25401e-10	1.25401e-10
     5	1.27473e-10	1.27473e-10
     6	1.28758e-10	1.28758e-10
     7	1.25959e-10	1.25959e-10
     8	1.32014e-10	1.32014e-10
     9	1.25673e-10	1.25673e-10
    10	1.30295e-10	1.30295e-10
    11	1.32014e-10	1.32014e-10
    12	1.23917e-10	1.23917e-10
    13	1.30097e-10	1.30097e-10
    14	1.30777e-10	1.30777e-10
    15	1.32721e-10	1.32721e-10
    16	1.30209e-10	1.30209e-10
    17	1.24854e-10	1.24854e-10
    18	1.32634e-10	1.32634e-10
    19	1.308e-10	1.308e-10
    20	1.29944e-10	1.29944e-10
    21	1.31217e-10	1.31217e-10
    22	1.30747e-10	1.30747e-10
    23	1.32398e-10	1.32398e-10
    24	1.30501e-10	1.30501e-10
    25	1.28915e-10	1.28915e-10
    26	1.2799e-10	1.2799e-10
    27	1.23989e-10	1.23989e-10
    28	1.29338e-10	1.29338e-10
    29	1.32357e-10	1.32357e-10
    30	1.3208e-10	1.3208e-10
    31	1.37072e-10	1.37072e-10
    32	1.25933e-10	1.25933e-10
    33	1.32543e-10	1.32543e-10
    34	1.29139e-10	1.29139e-10
    35	1.30251e-10	1.30251e-10
    36	1.30113e-10	1.30113e-10
    37	1.31642e-10	1.31642e-10
    38	1.35046e-10	1.35046e-10
    39	1.33876e-10	1.33876e-10
    40	1.32448e-10	1.32448e-10
    41	1.33649e-10	1.33649e-10
    42	1.27638e-10	1.27638e-10
    43	1.30656e-10	1.30656e-10
    44	1.31261e-10	1.31261e-10
    45	1.288e-10	1.288e-10
    46	1.31999e-10	1.31999e-10
    47	1.34344e-10	1.34344e-10
    48	1.31862e-10	1.31862e-10
    49	1.33118e-10	1.33118e-10
    50	1.29931e-10	1.29931e-10

Measurement: t2
  step	time	at
     1	1.67828e-10	1.67828e-10
     2	1.68597e-10	1.68597e-10
     3	1.69282e-10	1.69282e-10
     4	1.60925e-10	1.60925e-10
     5	1.63443e-10	1.63443e-10
     6	1.65244e-10	1.65244e-10
     7	1.61445e-10	1.61445e-10
     8	1.69374e-10	1.69374e-10
     9	1.61256e-10	1.61256e-10
    10	1.67184e-10	1.67184e-10
    11	1.69224e-10	1.69224e-10
    12	1.58891e-10	1.58891e-10
    13	1.66755e-10	1.66755e-10
    14	1.67543e-10	1.67543e-10
    15	1.70182e-10	1.70182e-10
    16	1.6699e-10	1.6699e-10
    17	1.60166e-10	1.60166e-10
    18	1.70114e-10	1.70114e-10
    19	1.67852e-10	1.67852e-10
    20	1.66795e-10	1.66795e-10
    21	1.68291e-10	1.68291e-10
    22	1.67735e-10	1.67735e-10
    23	1.69746e-10	1.69746e-10
    24	1.67226e-10	1.67226e-10
    25	1.65371e-10	1.65371e-10
    26	1.64141e-10	1.64141e-10
    27	1.59188e-10	1.59188e-10
    28	1.65772e-10	1.65772e-10
    29	1.69673e-10	1.69673e-10
    30	1.69197e-10	1.69197e-10
    31	1.75689e-10	1.75689e-10
    32	1.61538e-10	1.61538e-10
    33	1.70022e-10	1.70022e-10
    34	1.65529e-10	1.65529e-10
    35	1.67141e-10	1.67141e-10
    36	1.66828e-10	1.66828e-10
    37	1.68795e-10	1.68795e-10
    38	1.7331e-10	1.7331e-10
    39	1.71688e-10	1.71688e-10
    40	1.69777e-10	1.69777e-10
    41	1.71468e-10	1.71468e-10
    42	1.6373e-10	1.6373e-10
    43	1.67353e-10	1.67353e-10
    44	1.68352e-10	1.68352e-10
    45	1.65186e-10	1.65186e-10
    46	1.6907e-10	1.6907e-10
    47	1.72237e-10	1.72237e-10
    48	1.69208e-10	1.69208e-10
    49	1.70694e-10	1.70694e-10
    50	1.66637e-10	1.66637e-10

Measurement: f
  step	1/(t2-t1)
     1	2.705e+10
     2	2.68941e+10
     3	2.68325e+10
     4	2.81494e+10
     5	2.78009e+10
     6	2.74081e+10
     7	2.81807e+10
     8	2.67668e+10
     9	2.81033e+10
    10	2.71087e+10
    11	2.6875e+10
    12	2.85926e+10
    13	2.72786e+10
    14	2.71989e+10
    15	2.66946e+10
    16	2.71875e+10
    17	2.83189e+10
    18	2.66807e+10
    19	2.69891e+10
    20	2.71362e+10
    21	2.69733e+10
    22	2.70358e+10
    23	2.67757e+10
    24	2.72299e+10
    25	2.74307e+10
    26	2.76615e+10
    27	2.84097e+10
    28	2.74469e+10
    29	2.67975e+10
    30	2.6942e+10
    31	2.58951e+10
    32	2.80861e+10
    33	2.6682e+10
    34	2.74801e+10
    35	2.71073e+10
    36	2.72365e+10
    37	2.69163e+10
    38	2.61342e+10
    39	2.64469e+10
    40	2.67887e+10
    41	2.64421e+10
    42	2.7707e+10
    43	2.72501e+10
    44	2.69611e+10
    45	2.74826e+10
    46	2.69756e+10
    47	2.63898e+10
    48	2.67768e+10
    49	2.66129e+10
    50	2.72434e+10

Total elapsed time: 31.260 seconds.

