Circuit: *** SPICE deck for cell FiveStageRingOsc{sch} from library Demo

Warning: toxe, toxp and dtox all given and toxe != toxp + dtox; dtox ignored.
Warning: toxe, toxp and dtox all given and toxe != toxp + dtox; dtox ignored.
Warning: toxe, toxp and dtox all given and toxe != toxp + dtox; dtox ignored.
Warning: toxe, toxp and dtox all given and toxe != toxp + dtox; dtox ignored.
Warning: toxe, toxp and dtox all given and toxe != toxp + dtox; dtox ignored.
Warning: toxe, toxp and dtox all given and toxe != toxp + dtox; dtox ignored.
Warning: toxe, toxp and dtox all given and toxe != toxp + dtox; dtox ignored.
Warning: toxe, toxp and dtox all given and toxe != toxp + dtox; dtox ignored.
Warning: toxe, toxp and dtox all given and toxe != toxp + dtox; dtox ignored.
Warning: toxe, toxp and dtox all given and toxe != toxp + dtox; dtox ignored.
Warning: toxe, toxp and dtox all given and toxe != toxp + dtox; dtox ignored.
Direct Newton iteration for .op point succeeded.

t1: time=5.86508e-010 at 5.86508e-010
t2: time=6.9393e-010 at 6.9393e-010
f: 1/(t2-t1)=9.30909e+009


Date: Thu Sep 05 12:40:10 2024
Total elapsed time: 0.416 seconds.

tnom = 27
temp = 27
method = modified trap
totiter = 5194
traniter = 5162
tranpoints = 1042
accept = 1042
rejected = 0
matrix size = 101
fillins = 16
solver = Normal
Matrix Compiler1: 14.1 KB object code size  2.7/1.2/[0.7]
Matrix Compiler2: 12.1 KB object code size  1.2/1.3/[0.8]


