Circuit: *** SPICE deck for cell inverter{sch} from library Demo

Warning: toxe, toxp and dtox all given and toxe != toxp + dtox; dtox ignored.
Direct Newton iteration for .op point succeeded.

tplh=3.24285e-012 FROM 1.05e-009 TO 1.05324e-009


Date: Thu Aug 22 17:53:52 2024
Total elapsed time: 0.574 seconds.

tnom = 27
temp = 27
method = modified trap
totiter = 2126
traniter = 2120
tranpoints = 1052
accept = 1052
rejected = 0
matrix size = 13
fillins = 0
solver = Normal
Matrix Compiler1: 996 bytes object code size  1.0/0.5/[0.4]
Matrix Compiler2: 1.30 KB object code size  0.6/0.7/[0.5]


