Circuit: *** SPICE deck for cell inverter{sch} from library Demo

Warning: toxe, toxp and dtox all given and toxe != toxp + dtox; dtox ignored.
Direct Newton iteration for .op point succeeded.

tplh=2.1e-009 FROM 0 TO 2.1e-009


Date: Mon Oct 14 21:45:51 2024
Total elapsed time: 0.226 seconds.

tnom = 27
temp = 27
method = modified trap
totiter = 2134
traniter = 2128
tranpoints = 1055
accept = 1055
rejected = 0
matrix size = 13
fillins = 0
solver = Normal
Matrix Compiler1: 996 bytes object code size  1.3/0.8/[0.5]
Matrix Compiler2: 1.30 KB object code size  0.8/1.3/[0.5]


