Circuit: *** SPICE deck for cell Demo__inverter{lay} from library Demo

Fatal Error: No analysis request found.
