Circuit: *** SPICE deck for cell inverter{sch} from library Demo

Warning: toxe, toxp and dtox all given and toxe != toxp + dtox; dtox ignored.
Direct Newton iteration for .op point succeeded.


Measurement "tplh" FAIL'ed


Date: Thu Aug 22 17:59:53 2024
Total elapsed time: 0.150 seconds.

tnom = 27
temp = 27
method = modified trap
totiter = 2095
traniter = 2089
tranpoints = 1045
accept = 1045
rejected = 0
matrix size = 13
fillins = 0
solver = Normal
Matrix Compiler1: 996 bytes object code size  0.3/0.2/[0.1]
Matrix Compiler2: 1.30 KB object code size  0.2/0.2/[0.1]


