LTspice 24.0.12 for Windows
Circuit: *** SPICE deck for cell nmos+sch{sch} from library MOSCHAR
Start Time: Sat Aug 10 18:18:41 2024
solver = Normal
Maximum thread count: 8



.step x=0.4



.step x=0.5



.step x=0.6



.step x=0.7
tnom = 27
temp = 27
method = modified trap
.step x=0.8
Total elapsed time: 0.161 seconds.

