Circuit: *** SPICE deck for cell random{sch} from library Demo

WARNING: Node DEMO__INVERTER:INP#1PIN@25_POLYSILICON-1##3 is floating.

Warning: toxe, toxp and dtox all given and toxe != toxp + dtox; dtox ignored.
Warning: toxe, toxp and dtox all given and toxe != toxp + dtox; dtox ignored.
Warning: toxe, toxp and dtox all given and toxe != toxp + dtox; dtox ignored.
Warning: toxe, toxp and dtox all given and toxe != toxp + dtox; dtox ignored.
Warning: toxe, toxp and dtox all given and toxe != toxp + dtox; dtox ignored.
Warning: toxe, toxp and dtox all given and toxe != toxp + dtox; dtox ignored.
Warning: toxe, toxp and dtox all given and toxe != toxp + dtox; dtox ignored.
Direct Newton iteration for .op point succeeded.


Measurement "tcoff" FAIL'ed

Measurement "tcon" FAIL'ed

Measurement "taoff" FAIL'ed

Measurement "taon" FAIL'ed


Date: Thu Oct 24 17:10:58 2024
Total elapsed time: 0.291 seconds.

tnom = 27
temp = 27
method = modified trap
totiter = 2218
traniter = 2198
tranpoints = 1067
accept = 1067
rejected = 0
matrix size = 149
fillins = 134
solver = Normal
Matrix Compiler1:    1020 opcodes  3.5/[2.4]/4.1
Matrix Compiler2: off  [1.5]/3.6/2.7


