Circuit: *** SPICE deck for cell Test__AND2_2x{sch} from library Demo

WARNING: Node DEMO__INVERTER:INP#1PIN@25_POLYSILICON-1##3 is floating.
WARNING: Node AND2_2X@1:A#1PIN@25_POLYSILICON-1##1 is floating.

Warning: toxe, toxp and dtox all given and toxe != toxp + dtox; dtox ignored.
Warning: toxe, toxp and dtox all given and toxe != toxp + dtox; dtox ignored.
Warning: toxe, toxp and dtox all given and toxe != toxp + dtox; dtox ignored.
Warning: toxe, toxp and dtox all given and toxe != toxp + dtox; dtox ignored.
Warning: toxe, toxp and dtox all given and toxe != toxp + dtox; dtox ignored.
Warning: toxe, toxp and dtox all given and toxe != toxp + dtox; dtox ignored.
Warning: toxe, toxp and dtox all given and toxe != toxp + dtox; dtox ignored.
Warning: toxe, toxp and dtox all given and toxe != toxp + dtox; dtox ignored.
Direct Newton iteration for .op point succeeded.

tphl=1.52837e-011 FROM 1.47796e-009 TO 1.49325e-009
tplh=1.58161e-011 FROM 1.97701e-009 TO 1.99282e-009


Date: Thu Oct 24 17:08:02 2024
Total elapsed time: 0.396 seconds.

tnom = 27
temp = 27
method = modified trap
totiter = 2258
traniter = 2233
tranpoints = 1069
accept = 1069
rejected = 0
matrix size = 245
fillins = 208
solver = Normal
Thread vector: 102.8/71.8[2] 12.5/10.6[2] 3.6/5.2[1] 2.4/1.7[2]  2592/500
Matrix Compiler1: 33.8 KB object code size  9.5/3.7/[1.8]
Matrix Compiler2:    2109 opcodes  2.9/[2.9]/7.4


