Circuit: *** SPICE deck for cell Text__FA_Carry_3x{sch} from library Demo

WARNING: Node DEMO__INVERTER:INP#1PIN@25_POLYSILICON-1##3 is floating.

Warning: toxe, toxp and dtox all given and toxe != toxp + dtox; dtox ignored.
Warning: toxe, toxp and dtox all given and toxe != toxp + dtox; dtox ignored.
Warning: toxe, toxp and dtox all given and toxe != toxp + dtox; dtox ignored.
Warning: toxe, toxp and dtox all given and toxe != toxp + dtox; dtox ignored.
Warning: toxe, toxp and dtox all given and toxe != toxp + dtox; dtox ignored.
Warning: toxe, toxp and dtox all given and toxe != toxp + dtox; dtox ignored.
Warning: toxe, toxp and dtox all given and toxe != toxp + dtox; dtox ignored.
Warning: toxe, toxp and dtox all given and toxe != toxp + dtox; dtox ignored.
Warning: toxe, toxp and dtox all given and toxe != toxp + dtox; dtox ignored.
Direct Newton iteration for .op point succeeded.


Measurement "tcoff" FAIL'ed

Measurement "tcon" FAIL'ed

Measurement "taoff" FAIL'ed

Measurement "taon" FAIL'ed


Date: Thu Oct 24 17:13:22 2024
Total elapsed time: 0.430 seconds.

tnom = 27
temp = 27
method = modified trap
totiter = 2191
traniter = 2166
tranpoints = 1067
accept = 1067
rejected = 0
matrix size = 262
fillins = 158
solver = Normal
Thread vector: 123.5/76.6[3] 15.8/11.7[3] 4.4/11.3[1] 1.6/2.0[1]  2592/500
Matrix Compiler1: 37.9 KB object code size  9.0/3.6/[1.9]
Matrix Compiler2:    2286 opcodes  3.1/[2.8]/5.1


