Circuit: *** SPICE deck for cell FA_2x_Carry{sch} from library Demo

Warning: toxe, toxp and dtox all given and toxe != toxp + dtox; dtox ignored.
Direct Newton iteration for .op point succeeded.


Measurement "tcoff" FAIL'ed

Measurement "tcon" FAIL'ed

Measurement "taoff" FAIL'ed

Measurement "taon" FAIL'ed


Date: Thu Oct 24 17:41:02 2024
Total elapsed time: 0.286 seconds.

tnom = 27
temp = 27
method = modified trap
totiter = 2179
traniter = 2162
tranpoints = 1067
accept = 1067
rejected = 0
matrix size = 77
fillins = 0
solver = Normal
Matrix Compiler1: 8.93 KB object code size  2.0/1.2/[0.5]
Matrix Compiler2: off  [1.0]/1.0/1.1


