Circuit: *** SPICE deck for cell Test__NAND2_2x{sch} from library Demo

WARNING: Node NET@23 is floating.

Warning: toxe, toxp and dtox all given and toxe != toxp + dtox; dtox ignored.
Warning: toxe, toxp and dtox all given and toxe != toxp + dtox; dtox ignored.
Warning: toxe, toxp and dtox all given and toxe != toxp + dtox; dtox ignored.
Warning: toxe, toxp and dtox all given and toxe != toxp + dtox; dtox ignored.
Warning: toxe, toxp and dtox all given and toxe != toxp + dtox; dtox ignored.
Direct Newton iteration failed to find .op point.  (Use ".option noopiter" to skip.)
Starting Gmin stepping
Gmin = 10
Gmin = 1.07374
Gmin = 0.115292
Gmin = 0.0123794
Gmin = 0.00132923
Gmin = 0.000142725
Gmin = 1.5325e-005
Gmin = 1.6455e-006
Gmin = 1.76685e-007
Gmin = 1.89714e-008
Gmin = 2.03704e-009
Gmin = 2.18725e-010
Gmin = 2.34854e-011
Gmin = 2.52173e-012
Gmin = 2.70769e-013
Gmin = 0
Gmin stepping succeeded in finding the operating point.


tphl=6.93529e-012 FROM 1.46809e-009 TO 1.47502e-009
tplh=6.1109e-012 FROM 1.96722e-009 TO 1.97333e-009


Date: Thu Sep 26 17:43:37 2024
Total elapsed time: 0.303 seconds.

tnom = 27
temp = 27
method = modified trap
totiter = 2682
traniter = 2245
tranpoints = 1069
accept = 1069
rejected = 0
matrix size = 79
fillins = 0
solver = Normal
Matrix Compiler1: 10.3 KB object code size  1.6/0.9/[0.6]
Matrix Compiler2: 9.33 KB object code size  1.7/2.8/[1.7]


