Circuit: *** SPICE deck for cell Test_FA_2x{sch} from library Demo

Warning: toxe, toxp and dtox all given and toxe != toxp + dtox; dtox ignored.
Warning: toxe, toxp and dtox all given and toxe != toxp + dtox; dtox ignored.
Warning: toxe, toxp and dtox all given and toxe != toxp + dtox; dtox ignored.
Warning: toxe, toxp and dtox all given and toxe != toxp + dtox; dtox ignored.
Warning: toxe, toxp and dtox all given and toxe != toxp + dtox; dtox ignored.
Warning: toxe, toxp and dtox all given and toxe != toxp + dtox; dtox ignored.
Warning: toxe, toxp and dtox all given and toxe != toxp + dtox; dtox ignored.
Direct Newton iteration failed to find .op point.  (Use ".option noopiter" to skip.)
Starting Gmin stepping
Gmin = 10
Gmin = 1.07374
Gmin = 0.115292
Gmin = 0.0123794
Gmin = 0.00132923
Gmin = 0.000142725
Gmin = 1.5325e-005
Gmin = 1.6455e-006
Gmin = 1.76685e-007
Gmin = 1.89714e-008
Gmin = 2.03704e-009
Gmin = 2.18725e-010
Gmin = 2.34854e-011
Gmin = 2.52173e-012
Gmin = 2.70769e-013
Gmin = 0
Gmin stepping succeeded in finding the operating point.


tcoff=2.14658e-011 FROM 4.84664e-010 TO 5.06129e-010
tcon=1.89854e-011 FROM 9.84435e-010 TO 1.00342e-009
taoff=3.35366e-011 FROM 1.48683e-009 TO 1.52037e-009
taon=2.31476e-011 FROM 1.98657e-009 TO 2.00972e-009


Date: Thu Oct 24 21:30:15 2024
Total elapsed time: 0.796 seconds.

tnom = 27
temp = 27
method = modified trap
totiter = 2700
traniter = 2249
tranpoints = 1067
accept = 1067
rejected = 0
matrix size = 316
fillins = 130
solver = Normal
Thread vector: 193.4/105.9[5] 19.7/9.3[5] 23.7/6.8[5] 4.1/2.6[2]  2592/500
Matrix Compiler1: 51.9 KB object code size  11.3/5.0/[4.9]
Matrix Compiler2: 38.8 KB object code size  12.3/11.2/[7.8]


