Circuit: *** SPICE deck for cell Test__inverter{sch} from library Demo

Warning: toxe, toxp and dtox all given and toxe != toxp + dtox; dtox ignored.
Warning: toxe, toxp and dtox all given and toxe != toxp + dtox; dtox ignored.
Direct Newton iteration for .op point succeeded.

tplh=2.1e-009 FROM 0 TO 2.1e-009


Date: Mon Oct 14 21:46:14 2024
Total elapsed time: 0.191 seconds.

tnom = 27
temp = 27
method = modified trap
totiter = 2135
traniter = 2128
tranpoints = 1055
accept = 1055
rejected = 0
matrix size = 43
fillins = 36
solver = Normal
Matrix Compiler1: 5.12 KB object code size  0.8/0.4/[0.3]
Matrix Compiler2: 4.56 KB object code size  0.3/0.4/[0.2]


