Circuit: *** SPICE deck for cell Text__FA_Carry_3x{sch} from library Demo

WARNING: Node DEMO__INVERTER:INP#1PIN@25_POLYSILICON-1##3 is floating.

Warning: toxe, toxp and dtox all given and toxe != toxp + dtox; dtox ignored.
Warning: toxe, toxp and dtox all given and toxe != toxp + dtox; dtox ignored.
Warning: toxe, toxp and dtox all given and toxe != toxp + dtox; dtox ignored.
Warning: toxe, toxp and dtox all given and toxe != toxp + dtox; dtox ignored.
Warning: toxe, toxp and dtox all given and toxe != toxp + dtox; dtox ignored.
Warning: toxe, toxp and dtox all given and toxe != toxp + dtox; dtox ignored.
Warning: toxe, toxp and dtox all given and toxe != toxp + dtox; dtox ignored.
Warning: toxe, toxp and dtox all given and toxe != toxp + dtox; dtox ignored.
Warning: toxe, toxp and dtox all given and toxe != toxp + dtox; dtox ignored.
Direct Newton iteration for .op point succeeded.


Measurement "tcoff" FAIL'ed

Measurement "tcon" FAIL'ed

Measurement "taoff" FAIL'ed

Measurement "taon" FAIL'ed


Date: Thu Oct 24 16:57:14 2024
Total elapsed time: 0.441 seconds.

tnom = 27
temp = 27
method = modified trap
totiter = 2191
traniter = 2166
tranpoints = 1067
accept = 1067
rejected = 0
matrix size = 262
fillins = 158
solver = Normal
Thread vector: 195.6/106.0[3] 24.5/14.6[3] 9.6/6.1[3] 2.9/1.8[2]  2592/500
Matrix Compiler1: 37.9 KB object code size  15.4/9.8/[6.5]
Matrix Compiler2: 30.5 KB object code size  6.0/14.4/[6.0]


